<routes>
	<vType id="CarA" guiShape="passenger" /> <!-- vehicle of interest -->
	<vType id="BicycleThief" guiShape="bicycle" maxSpeed="4"/>
	
	<route id="route66" edges="4361221#0 4361221#1 4361221#2 4361221#4 4361221#5 204241148#0 204241148#1 49897543 5094886#3 45897403#0 45897403#1 45897403#2 45897403#3 45897403#4 45897403#5 5094891#3 5094891#4 5094891#5
							   5094893#0 5094893#1 5322852#0 5322852#1 73530943#0 73530943#1 73530943#2 73530943#5 73530943#6 73530943#7 73530943#8 73530943#9 73530943#10 73530943#12 73530943#13 73530943#14 5322853#0 5322853#1
							   4577077#0 4577077#1 4577077#2 139332156 44348584 203086244#5  203086244#6-AddedOnRampEdge 203086244#6 165828381 165828381-AddedOffRampEdge 139327106#0 139327106#1 139327098#0 139327098#2 288985250
							   167571346 237508423#0 237508423#1 44347939#0 44347939#1 44347939#3 -548116385 -44341853 -179269286 179269293#3 179269293#4 -179269283 4361221#5
							   204241148#0 204241148#1 49897543 5094886#3 45897403#0 45897403#1 45897403#2 45897403#3 45897403#4 45897403#5 5094891#3 5094891#4 5094891#5
							   5094893#0 5094893#1 5322852#0 5322852#1 73530943#0 73530943#1 73530943#2 73530943#5 73530943#6 73530943#7 73530943#8 73530943#9 73530943#10 73530943#12 73530943#13 73530943#14 5322853#0 5322853#1
							   4577077#0 4577077#1 4577077#2 139332156 44348584 203086244#5  203086244#6-AddedOnRampEdge 203086244#6 165828381 165828381-AddedOffRampEdge 139327106#0 139327106#1 139327098#0 139327098#2 288985250
							   167571346 237508423#0 237508423#1 44347939#0 44347939#1 44347939#3 -548116385 -44341853 -179269286 179269293#3 179269293#4 -179269283 4361221#5
							   204241148#0 204241148#1 49897543 5094886#3 45897403#0 45897403#1 45897403#2 45897403#3 45897403#4 45897403#5 5094891#3 5094891#4 5094891#5
							   5094893#0 5094893#1 5322852#0 5322852#1 73530943#0 73530943#1 73530943#2 73530943#5 73530943#6 73530943#7 73530943#8 73530943#9 73530943#10 73530943#12 73530943#13 73530943#14 5322853#0 5322853#1
							   4577077#0 4577077#1 4577077#2 139332156 44348584 203086244#5  203086244#6-AddedOnRampEdge 203086244#6 165828381 165828381-AddedOffRampEdge 139327106#0 139327106#1 139327098#0 139327098#2 288985250
							   167571346 237508423#0 237508423#1 44347939#0 44347939#1 44347939#3 -548116385 -44341853 -179269286 179269293#3 179269293#4 -179269283 4361221#5
							   204241148#0 204241148#1 49897543 5094886#3 45897403#0 45897403#1 45897403#2 45897403#3 45897403#4 45897403#5 5094891#3 5094891#4 5094891#5
							   5094893#0 5094893#1 5322852#0 5322852#1 73530943#0 73530943#1 73530943#2 73530943#5 73530943#6 73530943#7 73530943#8 73530943#9 73530943#10 73530943#12 73530943#13 73530943#14 5322853#0 5322853#1
							   4577077#0 4577077#1 4577077#2 139332156 44348584 203086244#5  203086244#6-AddedOnRampEdge 203086244#6 165828381 165828381-AddedOffRampEdge 139327106#0 139327106#1 139327098#0 139327098#2 288985250
							   167571346 237508423#0 237508423#1 44347939#0 44347939#1 44347939#3 -548116385 -44341853 -179269286 179269293#3 179269293#4 -179269283 4361221#5
							   204241148#0 204241148#1 49897543 5094886#3 45897403#0 45897403#1 45897403#2 45897403#3 45897403#4 45897403#5 5094891#3 5094891#4 5094891#5
							   5094893#0 5094893#1 5322852#0 5322852#1 73530943#0 73530943#1 73530943#2 73530943#5 73530943#6 73530943#7 73530943#8 73530943#9 73530943#10 73530943#12 73530943#13 73530943#14 5322853#0 5322853#1
							   4577077#0 4577077#1 4577077#2 139332156 44348584 203086244#5  203086244#6-AddedOnRampEdge 203086244#6 165828381 165828381-AddedOffRampEdge 139327106#0 139327106#1 139327098#0 139327098#2 288985250
							   167571346 237508423#0 237508423#1 44347939#0 44347939#1 44347939#3 -548116385 -44341853 -179269286 179269293#3 179269293#4 -179269283 4361221#5
							   204241148#0 204241148#1 49897543 5094886#3 45897403#0 45897403#1 45897403#2 45897403#3 45897403#4 45897403#5 5094891#3 5094891#4 5094891#5
							   5094893#0 5094893#1 5322852#0 5322852#1 73530943#0 73530943#1 73530943#2 73530943#5 73530943#6 73530943#7 73530943#8 73530943#9 73530943#10 73530943#12 73530943#13 73530943#14 5322853#0 5322853#1
							   4577077#0 4577077#1 4577077#2 139332156 44348584 203086244#5  203086244#6-AddedOnRampEdge 203086244#6 165828381 165828381-AddedOffRampEdge 139327106#0 139327106#1 139327098#0 139327098#2 288985250
							   167571346 237508423#0 237508423#1 44347939#0 44347939#1 44347939#3 -548116385 -44341853 -179269286 179269293#3 179269293#4 -179269283 4361221#5
							   204241148#0 204241148#1 49897543 5094886#3 45897403#0 45897403#1 45897403#2 45897403#3 45897403#4 45897403#5 5094891#3 5094891#4 5094891#5
							   5094893#0 5094893#1 5322852#0 5322852#1 73530943#0 73530943#1 73530943#2 73530943#5 73530943#6 73530943#7 73530943#8 73530943#9 73530943#10 73530943#12 73530943#13 73530943#14 5322853#0 5322853#1
							   4577077#0 4577077#1 4577077#2 139332156 44348584 203086244#5  203086244#6-AddedOnRampEdge 203086244#6 165828381 165828381-AddedOffRampEdge 139327106#0 139327106#1 139327098#0 139327098#2 288985250
							   167571346 237508423#0 237508423#1 44347939#0 44347939#1 44347939#3 -548116385 -44341853 -179269286 179269293#3 179269293#4 -179269283 4361221#5
							   204241148#0 204241148#1 49897543 5094886#3 45897403#0 45897403#1 45897403#2 45897403#3 45897403#4 45897403#5 5094891#3 5094891#4 5094891#5
							   5094893#0 5094893#1 5322852#0 5322852#1 73530943#0 73530943#1 73530943#2 73530943#5 73530943#6 73530943#7 73530943#8 73530943#9 73530943#10 73530943#12 73530943#13 73530943#14 5322853#0 5322853#1
							   4577077#0 4577077#1 4577077#2 139332156 44348584 203086244#5  203086244#6-AddedOnRampEdge 203086244#6 165828381 165828381-AddedOffRampEdge 139327106#0 139327106#1 139327098#0 139327098#2 288985250
							   167571346 237508423#0 237508423#1 44347939#0 44347939#1 44347939#3 -548116385 -44341853 -179269286 179269293#3 179269293#4 -179269283 4361221#5
							   204241148#0 204241148#1 49897543 5094886#3 45897403#0 45897403#1 45897403#2 45897403#3 45897403#4 45897403#5 5094891#3 5094891#4 5094891#5
							   5094893#0 5094893#1 5322852#0 5322852#1 73530943#0 73530943#1 73530943#2 73530943#5 73530943#6 73530943#7 73530943#8 73530943#9 73530943#10 73530943#12 73530943#13 73530943#14 5322853#0 5322853#1
							   4577077#0 4577077#1 4577077#2 139332156 44348584 203086244#5  203086244#6-AddedOnRampEdge 203086244#6 165828381 165828381-AddedOffRampEdge 139327106#0 139327106#1 139327098#0 139327098#2 288985250
							   167571346 237508423#0 237508423#1 44347939#0 44347939#1 44347939#3 -548116385 -44341853 -179269286 179269293#3 179269293#4 -179269283 4361221#5
							   204241148#0 204241148#1 49897543 5094886#3 45897403#0 45897403#1 45897403#2 45897403#3 45897403#4 45897403#5 5094891#3 5094891#4 5094891#5
							   5094893#0 5094893#1 5322852#0 5322852#1 73530943#0 73530943#1 73530943#2 73530943#5 73530943#6 73530943#7 73530943#8 73530943#9 73530943#10 73530943#12 73530943#13 73530943#14 5322853#0 5322853#1
							   4577077#0 4577077#1 4577077#2 139332156 44348584 203086244#5  203086244#6-AddedOnRampEdge 203086244#6 165828381 165828381-AddedOffRampEdge 139327106#0 139327106#1 139327098#0 139327098#2 288985250
							   167571346 237508423#0 237508423#1 44347939#0 44347939#1 44347939#3 -548116385 -44341853 -179269286 179269293#3 179269293#4 -179269283 4361221#5" /> <!-- vehicle of interest driving in a continuous
							   loop x 10 -->
	
	<!-- period of investigation is from 15:00 -->
	<vehicle depart="54000" id="veh66" route="route66" type="CarA" />
	
	<!-- BikeThief Route -->
	<route id = "route0" edges="-4361218 4361220#0 4361220#1 4361219 -45399743#3 -45399743#2
								-4361218 4361220#0 4361220#1 4361219 -45399743#3 -45399743#2
								-4361218 4361220#0 4361220#1 4361219 -45399743#3 -45399743#2
								-4361218 4361220#0 4361220#1 4361219 -45399743#3 -45399743#2
								-4361218 4361220#0 4361220#1 4361219 -45399743#3 -45399743#2
								-4361218 4361220#0 4361220#1 4361219 -45399743#3 -45399743#2
								-4361218 4361220#0 4361220#1 4361219 -45399743#3 -45399743#2
								-4361218 4361220#0 4361220#1 4361219 -45399743#3 -45399743#2"/>
	<vehicle depart="54000" id="Thief" route="route0" type="BicycleThief"/>
	
	
	<!-- Parking Car -->
	
	<vehicle id="parkedCar1" depart="54000">
    <route edges="4361218"/>
    <stop parkingArea="ParkAreaA" duration="1000"/>
	</vehicle>
	
	<vehicle id="parkedCar2" depart="54000">
    <route edges="-4361220#0"/>
    <stop parkingArea="ParkAreaD" duration="1000"/>
	</vehicle>
	
	<vehicle id="parkedCar3" depart="54000">
    <route edges="4361220#0"/>
    <stop parkingArea="ParkAreaC" duration="1000"/>
	</vehicle>
	
	<vehicle id="parkedCar4" depart="54000">
    <route edges="4361219"/>
    <stop parkingArea="ParkAreaG" duration="1000"/>
	</vehicle>
	
	<vehicle id="parkedCar5" depart="54000">
    <route edges="-4361219"/>
    <stop parkingArea="ParkAreaH" duration="1000"/>
	</vehicle>
	
	<vehicle id="parkedCar6" depart="54000">
    <route edges="4361220#1"/>
    <stop parkingArea="ParkAreaE" duration="1000"/>
	</vehicle>
	
	<vehicle id="parkedCar7" depart="54000">
    <route edges="-4361220#1"/>
    <stop parkingArea="ParkAreaF" duration="1000"/>
	</vehicle>
	
	<vehicle id="parkedCar8" depart="54001">
    <route edges="4361220#1"/>
    <stop parkingArea="ParkAreaE" duration="1000"/>
	</vehicle>
	
	<vehicle id="parkedCar9" depart="54001">
    <route edges="4361218"/>
    <stop parkingArea="ParkAreaA" duration="1000"/>
	</vehicle>
	
	<vehicle id="parkedCar10" depart="54001">
    <route edges="-4361218"/>
    <stop parkingArea="ParkAreaB" duration="1000"/>
	</vehicle>
	
	<vehicle id="parkedCar11" depart="54001">
    <route edges="4361219"/>
    <stop parkingArea="ParkAreaG" duration="1000"/>
	</vehicle>
	
	<vehicle id="parkedCar12" depart="54001">
    <route edges="-4361219"/>
    <stop parkingArea="ParkAreaH" duration="1000"/>
	</vehicle>
	
	<vehicle id="parkedCar13" depart="54002">
    <route edges="4361218"/>
    <stop parkingArea="ParkAreaA" duration="1000"/>
	</vehicle>
	
	<vehicle id="parkedCar14" depart="54002">
    <route edges="-4361218"/>
    <stop parkingArea="ParkAreaB" duration="1000"/>
	</vehicle>
	
	<vehicle id="parkedCar15" depart="54002">
    <route edges="4361219"/>
    <stop parkingArea="ParkAreaG" duration="1000"/>
	</vehicle>


</routes>